Network_data/Greensboro_GSO_urban_SH_BH/uhs2_1247/Master.dss
Clear

New Circuit.substation_uhs2_69 bus1=uhs2_69 pu=1.0 basekV=69.0 R1=1e-05 X1=1e-05 R0=1e-05 X0=1e-05

Redirect LineCodes.dss
Redirect uhs2_1247--udt10746/LineCodes.dss
Redirect uhs2_1247--udt12473/LineCodes.dss
Redirect uhs2_1247--udt9312/LineCodes.dss
Redirect Lines.dss
Redirect uhs2_1247--udt10746/Lines.dss
Redirect uhs2_1247--udt12473/Lines.dss
Redirect uhs2_1247--udt9312/Lines.dss
Redirect Transformers.dss
Redirect uhs2_1247--udt10746/Transformers.dss
Redirect uhs2_1247--udt12473/Transformers.dss
Redirect uhs2_1247--udt9312/Transformers.dss
Redirect Regulators.dss
Redirect LoadShapes.dss
Redirect uhs2_1247--udt10746/Loads.dss
Redirect uhs2_1247--udt12473/Loads.dss
Redirect uhs2_1247--udt9312/Loads.dss
Redirect uhs2_1247--udt12473/Capacitors.dss
Redirect uhs2_1247--udt9312/Capacitors.dss
Redirect Storage.dss
Redirect uhs2_1247--udt10746/Storage.dss
Redirect uhs2_1247--udt12473/Storage.dss
Redirect uhs2_1247--udt9312/Storage.dss
Redirect uhs2_1247--udt10746/PVSystems.dss
Redirect uhs2_1247--udt12473/PVSystems.dss
Redirect uhs2_1247--udt9312/PVSystems.dss
new monitor.m1 element=Line.sb2_uhs2_1247_351 mode=0
new monitor.m2 element=Line.sb2_uhs2_1247_351 mode=1
new energymeter.m3 Line.sb2_uhs2_1247_351

Set Voltagebases=[0.12, 0.208, 0.24, 0.48, 7.2, 12.47, 69.0]

Calcvoltagebases

Buscoords Buscoords.dss
set maxcontroliter=50

Solve mode=yearly stepsize=15m number=35040
Export monitors m1
Plot monitor object= m1 channels=(7 9 11 )
Export monitors m2
Plot monitor object= m2 channels=(1 3 5 )
Plot Profile Phases=All
